bash: ./sim-outorder-orig: No such file or directory
